<?xml version="1.0" encoding="UTF-8"?>

<!-- generated on 2022-10-01 16:51:33.868024 by edgesInDistricts.py UNKNOWN
  options: -n study_area.net.xml -t converted.merged.xml
-->

<tazs xmlns:xsi="http://www.w3.org/2001/XMLSchema-instance" xsi:noNamespaceSchemaLocation="http://sumo.dlr.de/xsd/taz_file.xsd">
    <taz id="0" color="51,128,255" edges="-16249540#0 -16249540#1 -16253485#0 -16254201 -16255055 -16255603#0 -16256466 -16259248#0 -16260480 -16261056 -16262565 -16262819#0 -16263932#0 -16263932#1 -16263932#2 -16263932#3 -16263932#4 -16263945 -250473408 -260036057#0 -260036057#1 -627887422#0 -627887422#1 -627887422#3 -627887422#4 -627887422#5 -627887423#1 -627887423#3 -627887423#4 -627887423#5 -627887423#6 -627887426#0 -688182823 -70331786 -721720674#0 -721720674#1 -851394171 -886568238#0 -886568238#1 -886568238#2 -922463717 -924683558 -962107125#0 16249540#1 16253485#0 16254201 16255055 16255603#0 16259248#0 16260480 16261056 16262565 16262819#0 16263932#0 16263932#1 16263932#2 16263932#3 16263932#4 16263945 250473408 260036057#0 260036057#1 627887422#0 627887422#1 627887422#2 627887422#4 627887422#5 627887423#0 627887423#2 627887423#4 627887423#5 627887423#6 627887426#0 688182823 70331786 721720673 721720674#0 721720674#1 851394171 886568238#0 886568238#1 886568238#2 922463717 924683558 962107125#0"/>
    <taz id="1" color="51,128,255" edges="-16249540#0 -16255055 -16256466 -260036057#1 -721720674#1 -922463717 -924683558 16255055 260036057#1 721720674#1 922463717 924683558"/>
    <taz id="2" edges="-140799133#1 -16216374#0 -16216374#1 -16216380#0 -16216380#1 -16249540#1 -16249540#2 -16253332 -16253433#0 -16253433#1 -16253485#0 -16253485#1 -16253485#2 -16253485#3 -16253485#4 -16253485#5 -16253487 -16254201 -16255127 -16255603#0 -16255603#1 -16255603#2 -16255603#3 -16255603#4 -16255603#5 -16255603#6 -16255604#0 -16255604#1 -16255604#2 -16255604#3 -16255604#4 -16255604#5 -16255604#6 -16255963#0 -16255963#1 -16255964#0 -16255964#1 -16255998#0 -16255998#1 -16255998#2 -16256422 -16258079#0 -16258079#1 -16258079#2 -16258079#3 -16258079#4 -16258079#5 -16258079#6 -16258079#8 -16259633#0 -16259633#1 -16260230 -16261056 -16261307#0 -16261307#1 -16261307#2 -16261307#3 -16261307#4 -16261307#5 -16261465#0 -16261465#1 -16261465#2 -16261465#3 -16261465#4 -16261465#5 -16261465#6 -16261465#7 -16261465#8 -16261465#9 -16261622 -16261742#0 -16261742#1 -16261742#2 -16261742#3 -16261742#5 -16262819#0 -16262819#1 -16262900#0 -16262900#1 -16262901#0 -16262901#1 -16262970#0 -16262970#1 -16263031 -16263102#0 -16263102#2 -16263655 -16263682 -16263874#0 -16263876#0 -16263876#2 -16263876#3 -16263876#4 -16263876#5 -16263876#6 -16263876#7 -16263876#8 -16263876#9 -16263877 -16263945 -16264340#0 -16264556#0 -16264556#1 -374198052#0 -374198052#1 -500439716 -500439723 -500439733#0 -500439733#1 -534170019 -534170020#0 -534170020#1 -539864264 -616970620 -620504592 -620504593 -627006496#0 -627006496#1 -627006496#2 -627006502#0 -627006502#1 -627006505#0 -627006505#1 -627006506 -627006507#0 -627006507#1 -627006507#2 -627887426#0 -627887426#1 -677935493 -678015239 -678015240 -678015241 -678687065 -678722512 -678722514 -678722517 -678722519 -678722520 -678740105 -678740106 -678740107 -678740108 -678740109#0 -678740109#1 -678740109#2 -678740109#3 -678740109#4 -679856666 -679856667 -679856668#0 -679856668#1 -679856668#2 -679856673 -679856674 -679861600 -679861605 -679861613 -679861615 -679861616#0 -679861616#2 -679861616#3 -679874117 -679874119#0 -679874119#1 -679874121#0 -679874121#1 -679874122 -679874124 -679874125#0 -679874125#1 -679906149 -679906153 -679906154#0 -679906154#1 -679906155#0 -679906155#1 -679906155#2 -679906155#3 -679906156#0 -679906156#1 -679906156#2 -679906161 -679909974 -679909975 -679909979 -679909981 -679909983#0 -679909983#1 -679910002 -679910007 -679910009 -679910010 -679910011 -679910012#0 -679910012#1 -680212092 -680212093 -680212095#0 -680212095#1 -680212097 -688182823 -688188523 -688188525 -688188526 -688188527#0 -688188527#1 -688188527#2 -688188528 -688188529 -688188530 -688188531 -688190196 -688190198 -688424995 -688434731 -688434737 -688434738 -688434740 -688434741 -688434742#0 -688434742#1 -688434742#2 -688434742#3 -688434742#4 -688434746 -688434747#0 -688434747#1 -689003999 -689004000 -689004006 -689005094 -689005096 -848333830 -848826529 -848860045 -848860046 -849724628 -849724629 -850019014 -850365629 -850456431 -851377488#0 -851377488#1 -851377489 -851394171 -851662047 -884564306 -884564310 -884564311 -962107125#0 -962107125#1 140799133#1 16216374#0 16216374#1 16216380#0 16216380#1 16249540#1 16249540#2 16249540#3 16253332 16253433#1 16253433#2 16253485#0 16253485#1 16253485#2 16253485#3 16253485#4 16253485#5 16253487 16254201 16255127 16255603#0 16255603#1 16255603#2 16255603#3 16255603#4 16255603#5 16255603#6 16255604#0 16255604#1 16255604#2 16255604#3 16255604#4 16255604#5 16255604#6 16255963#0 16255963#1 16255964#0 16255964#1 16255998#0 16255998#1 16255998#2 16256422 16258079#1 16258079#2 16258079#3 16258079#4 16258079#5 16258079#6 16258079#8 16259248#0 16259633#0 16259633#1 16260230 16260850 16261056 16261307#0 16261307#1 16261307#2 16261307#3 16261307#4 16261307#5 16261465#1 16261465#2 16261465#3 16261465#4 16261465#5 16261465#6 16261465#7 16261465#8 16261465#9 16261742#0 16261742#1 16261742#2 16261742#3 16261742#5 16262819#0 16262819#1 16262900#1 16262901#0 16262901#1 16262970#0 16262970#1 16263031 16263102#0 16263102#2 16263655 16263682 16263874#0 16263874#1 16263876#0 16263876#2 16263876#3 16263876#4 16263876#5 16263876#6 16263876#7 16263876#8 16263876#9 16263877 16263945 16264340#0 16264340#1 16264556#0 16264556#1 256658115 374198052#1 500439716 500439723 500439733#0 500439733#1 534170019 534170020#0 534170020#1 539864264 616970620 620504592 620504593 627006496#1 627006496#2 627006502#0 627006502#1 627006505#0 627006505#1 627006507#1 627006507#2 627887425#1 627887426#0 627887426#1 677935493 678015239 678015240 678015241 678015242#0 678015242#1 678015242#3 678687065 678722512 678722517 678722519 678722520 678740105 678740106 678740107 678740108 678740109#0 678740109#1 678740109#2 678740109#3 678740109#4 679856666 679856667 679856668#0 679856668#1 679856668#2 679856673 679856674 679861600 679861605 679861613 679861615 679861616#0 679861616#2 679861616#3 679874117 679874119#0 679874119#1 679874121#0 679874121#1 679874122 679874124 679874125#0 679874125#1 679906149 679906150 679906153 679906154#0 679906154#1 679906155#0 679906155#1 679906155#2 679906155#3 679906156#0 679906156#1 679906156#2 679906162 679909974 679909975 679909979 679909981 679909983#0 679909983#1 679910002 679910007 679910009 679910010 679910011 679910012#0 679910012#1 680212092 680212093 680212095#0 680212095#1 680212097 688182823 688188523 688188525 688188526 688188527#0 688188527#1 688188527#2 688188528 688188529 688188530 688188531 688190196 688190198 688424995 688434731 688434737 688434738 688434740 688434741 688434742#0 688434742#1 688434742#2 688434742#3 688434742#4 688434746 688434747#0 688434747#1 689003999 689004000 689004006 689005094 689005096 848333830 848860045 848860046 849724628 849724629 850019014 850365629 850456431 851377488#0 851377488#1 851377489 851394171 879874319 884564306 884564307 884564308 884564309 884564311 962107125#0 962107125#1 962107125#2"/>
</tazs>
