<?xml version="1.0" encoding="UTF-8"?>

<!-- generated on 2022-09-26 18:02:22 by Eclipse SUMO netconvert Version 1.14.1
<configuration xmlns:xsi="http://www.w3.org/2001/XMLSchema-instance" xsi:noNamespaceSchemaLocation="http://sumo.dlr.de/xsd/netconvertConfiguration.xsd">

    <input>
        <type-files value="/usr/share/sumo/data/typemap/osmNetconvert.typ.xml"/>
        <osm-files value="study_area.osm.xml"/>
    </input>

    <output>
        <output-file value="study_area.net.xml"/>
    </output>

    <projection>
        <proj.utm value="true"/>
    </projection>

    <processing>
        <geometry.remove value="true"/>
    </processing>

    <tls_building>
        <tls.discard-simple value="true"/>
        <tls.join value="true"/>
        <tls.guess-signals value="true"/>
        <tls.default-type value="actuated"/>
    </tls_building>

    <ramp_guessing>
        <ramps.guess value="true"/>
    </ramp_guessing>

    <edge_removal>
        <remove-edges.isolated value="true"/>
    </edge_removal>

    <junctions>
        <junctions.join value="true"/>
    </junctions>

</configuration>
-->

<net version="1.9" junctionCornerDetail="5" limitTurnSpeed="5.50" xmlns:xsi="http://www.w3.org/2001/XMLSchema-instance" xsi:noNamespaceSchemaLocation="http://sumo.dlr.de/xsd/net_file.xsd">

    <location netOffset="-249126.55,-3814936.77" convBoundary="0.00,0.00,2421.62,2148.32" origBoundary="-119.730683,34.446002,-119.704720,34.465246" projParameter="+proj=utm +zone=11 +ellps=WGS84 +datum=WGS84 +units=m +no_defs"/>

    <type id="highway.bridleway" priority="1" numLanes="1" speed="2.78" allow="pedestrian" oneway="1" width="2.00"/>
    <type id="highway.bus_guideway" priority="1" numLanes="1" speed="27.78" allow="bus" oneway="1"/>
    <type id="highway.cycleway" priority="1" numLanes="1" speed="5.56" allow="bicycle" oneway="0" width="1.00"/>
    <type id="highway.footway" priority="1" numLanes="1" speed="2.78" allow="pedestrian" oneway="1" width="2.00"/>
    <type id="highway.ford" priority="1" numLanes="1" speed="2.78" allow="army" oneway="0"/>
    <type id="highway.living_street" priority="2" numLanes="1" speed="2.78" disallow="tram rail_urban rail rail_electric rail_fast ship" oneway="0"/>
    <type id="highway.motorway" priority="14" numLanes="2" speed="39.44" allow="private emergency authority army vip passenger hov taxi bus coach delivery truck trailer motorcycle evehicle custom1 custom2" oneway="1"/>
    <type id="highway.motorway_link" priority="9" numLanes="1" speed="22.22" allow="private emergency authority army vip passenger hov taxi bus coach delivery truck trailer motorcycle evehicle custom1 custom2" oneway="1"/>
    <type id="highway.path" priority="1" numLanes="1" speed="5.56" allow="pedestrian bicycle" oneway="0" width="2.00"/>
    <type id="highway.pedestrian" priority="1" numLanes="1" speed="2.78" allow="pedestrian" oneway="1" width="2.00"/>
    <type id="highway.primary" priority="12" numLanes="2" speed="27.78" disallow="tram rail_urban rail rail_electric rail_fast ship" oneway="0"/>
    <type id="highway.primary_link" priority="7" numLanes="1" speed="22.22" disallow="tram rail_urban rail rail_electric rail_fast ship" oneway="0"/>
    <type id="highway.raceway" priority="15" numLanes="2" speed="83.33" allow="vip" oneway="0"/>
    <type id="highway.residential" priority="3" numLanes="1" speed="13.89" disallow="tram rail_urban rail rail_electric rail_fast ship" oneway="0"/>
    <type id="highway.secondary" priority="11" numLanes="1" speed="27.78" disallow="tram rail_urban rail rail_electric rail_fast ship" oneway="0"/>
    <type id="highway.secondary_link" priority="6" numLanes="1" speed="22.22" disallow="tram rail_urban rail rail_electric rail_fast ship" oneway="0"/>
    <type id="highway.service" priority="1" numLanes="1" speed="5.56" allow="pedestrian delivery bicycle" oneway="0"/>
    <type id="highway.stairs" priority="1" numLanes="1" speed="1.39" allow="pedestrian" oneway="1" width="2.00"/>
    <type id="highway.step" priority="1" numLanes="1" speed="1.39" allow="pedestrian" oneway="1" width="2.00"/>
    <type id="highway.steps" priority="1" numLanes="1" speed="1.39" allow="pedestrian" oneway="1" width="2.00"/>
    <type id="highway.tertiary" priority="10" numLanes="1" speed="22.22" disallow="tram rail_urban rail rail_electric rail_fast ship" oneway="0"/>
    <type id="highway.tertiary_link" priority="5" numLanes="1" speed="22.22" disallow="tram rail_urban rail rail_electric rail_fast ship" oneway="0"/>
    <type id="highway.track" priority="1" numLanes="1" speed="5.56" allow="pedestrian motorcycle moped bicycle" oneway="0"/>
    <type id="highway.trunk" priority="13" numLanes="2" speed="27.78" disallow="pedestrian bicycle tram rail_urban rail rail_electric rail_fast ship" oneway="0"/>
    <type id="highway.trunk_link" priority="8" numLanes="1" speed="22.22" disallow="pedestrian bicycle tram rail_urban rail rail_electric rail_fast ship" oneway="0"/>
    <type id="highway.unclassified" priority="4" numLanes="1" speed="13.89" disallow="tram rail_urban rail rail_electric rail_fast ship" oneway="0"/>
    <type id="highway.unsurfaced" priority="1" numLanes="1" speed="8.33" disallow="tram rail_urban rail rail_electric rail_fast ship" oneway="0"/>
    <type id="railway.highspeed" priority="21" numLanes="1" speed="69.44" allow="rail_fast" oneway="1"/>
    <type id="railway.light_rail" priority="19" numLanes="1" speed="27.78" allow="rail_urban" oneway="1"/>
    <type id="railway.preserved" priority="16" numLanes="1" speed="27.78" allow="rail" oneway="1"/>
    <type id="railway.rail" priority="20" numLanes="1" speed="44.44" allow="rail" oneway="1"/>
    <type id="railway.subway" priority="18" numLanes="1" speed="27.78" allow="rail_urban" oneway="1"/>
    <type id="railway.tram" priority="17" numLanes="1" speed="13.89" allow="tram" oneway="1"/>

    <edge id=":164710144_0" function="internal">
        <lane id=":164710144_0_0" index="0" disallow="tram rail_urban rail rail_electric rail_fast ship" speed="6.16" length="9.05" shape="571.55,214.14 570.60,211.78 569.16,210.43 567.21,210.09 564.75,210.76"/>
    </edge>
    <edge id=":164710144_1" function="internal">
        <lane id=":164710144_1_0" index="0" disallow="tram rail_urban rail rail_electric rail_fast ship" speed="13.89" length="14.64" shape="571.55,214.14 570.64,210.56 569.64,207.08 568.53,203.62 567.29,200.15"/>
    </edge>
    <edge id=":164710144_2" function="internal">
        <lane id=":164710144_2_0" index="0" disallow="tram rail_urban rail rail_electric rail_fast ship" speed="3.65" length="1.44" shape="571.55,214.14 572.04,212.79"/>
    </edge>
    <edge id=":164710144_9" function="internal">
        <lane id=":164710144_9_0" index="0" disallow="tram rail_urban rail rail_electric rail_fast ship" speed="3.65" length="3.23" shape="572.04,212.79 572.73,212.22 573.60,212.42 574.66,213.40"/>
    </edge>
    <edge id=":164710144_3" function="internal">
        <lane id=":164710144_3_0" index="0" disallow="tram rail_urban rail rail_electric rail_fast ship" speed="13.89" length="15.05" shape="570.28,199.01 571.55,202.55 572.69,206.14 573.73,209.76 574.66,213.40"/>
    </edge>
    <edge id=":164710144_4" function="internal">
        <lane id=":164710144_4_0" index="0" disallow="tram rail_urban rail rail_electric rail_fast ship" speed="8.26" length="4.05" shape="570.28,199.01 571.07,202.75 571.03,202.98"/>
    </edge>
    <edge id=":164710144_5" function="internal">
        <lane id=":164710144_5_0" index="0" disallow="tram rail_urban rail rail_electric rail_fast ship" speed="3.65" length="1.44" shape="570.28,199.01 569.96,200.42"/>
    </edge>
    <edge id=":164710144_10" function="internal">
        <lane id=":164710144_10_0" index="0" disallow="tram rail_urban rail rail_electric rail_fast ship" speed="8.26" length="10.59" shape="571.03,202.98 570.41,205.96 568.31,208.63 564.75,210.76"/>
    </edge>
    <edge id=":164710144_11" function="internal">
        <lane id=":164710144_11_0" index="0" disallow="tram rail_urban rail rail_electric rail_fast ship" speed="3.65" length="3.23" shape="569.96,200.42 569.35,201.07 568.46,200.98 567.29,200.15"/>
    </edge>
    <edge id=":164710144_6" function="internal">
        <lane id=":164710144_6_0" index="0" disallow="tram rail_urban rail rail_electric rail_fast ship" speed="6.83" length="9.66" shape="563.47,207.83 565.87,206.40 567.31,204.65 567.78,202.56 567.29,200.15"/>
    </edge>
    <edge id=":164710144_7" function="internal">
        <lane id=":164710144_7_0" index="0" disallow="tram rail_urban rail rail_electric rail_fast ship" speed="7.72" length="14.90" shape="563.47,207.83 567.52,206.72 570.73,207.28 573.11,209.50 574.66,213.40"/>
    </edge>
    <edge id=":164710144_8" function="internal">
        <lane id=":164710144_8_0" index="0" disallow="tram rail_urban rail rail_electric rail_fast ship" speed="3.65" length="4.67" shape="563.47,207.83 564.89,208.08 565.58,208.65 565.53,209.55 564.75,210.76"/>
    </edge>
    <edge id=":164710153_0" function="internal">
        <lane id=":164710153_0_0" index="0" disallow="tram rail_urban rail rail_electric rail_fast ship" speed="6.60" length="9.20" shape="266.95,348.34 265.58,346.22 263.86,345.04 261.80,344.78 259.38,345.46"/>
    </edge>
    <edge id=":164710153_1" function="internal">
        <lane id=":164710153_1_0" index="0" disallow="tram rail_urban rail rail_electric rail_fast ship" speed="13.89" length="14.51" shape="266.95,348.34 260.90,335.15"/>
    </edge>
    <edge id=":164710153_2" function="internal">
        <lane id=":164710153_2_0" index="0" disallow="tram rail_urban rail rail_electric rail_fast ship" speed="7.97" length="14.27" shape="266.95,348.34 265.83,344.58 266.19,341.39 268.04,338.76 271.37,336.70"/>
    </edge>
    <edge id=":164710153_3" function="internal">
        <lane id=":164710153_3_0" index="0" disallow="tram rail_urban rail rail_electric rail_fast ship" speed="3.65" length="4.67" shape="266.95,348.34 267.17,346.92 267.73,346.22 268.62,346.25 269.85,347.00"/>
    </edge>
    <edge id=":164710153_4" function="internal">
        <lane id=":164710153_4_0" index="0" disallow="tram rail_urban rail rail_electric rail_fast ship" speed="6.46" length="9.03" shape="272.66,339.63 270.55,340.94 269.38,342.60 269.14,344.62 269.85,347.00"/>
    </edge>
    <edge id=":164710153_5" function="internal">
        <lane id=":164710153_5_0" index="0" disallow="tram rail_urban rail rail_electric rail_fast ship" speed="13.89" length="14.50" shape="272.66,339.63 259.38,345.46"/>
    </edge>
    <edge id=":164710153_6" function="internal">
        <lane id=":164710153_6_0" index="0" disallow="tram rail_urban rail rail_electric rail_fast ship" speed="8.07" length="4.08" shape="272.66,339.63 268.88,340.68 268.72,340.66"/>
    </edge>
    <edge id=":164710153_7" function="internal">
        <lane id=":164710153_7_0" index="0" disallow="tram rail_urban rail rail_electric rail_fast ship" speed="3.65" length="1.44" shape="272.66,339.63 271.24,339.38"/>
    </edge>
    <edge id=":164710153_16" function="internal">
        <lane id=":164710153_16_0" index="0" disallow="tram rail_urban rail rail_electric rail_fast ship" speed="8.07" length="10.21" shape="268.72,340.66 265.67,340.28 263.01,338.44 260.90,335.15"/>
    </edge>
    <edge id=":164710153_17" function="internal">
        <lane id=":164710153_17_0" index="0" disallow="tram rail_urban rail rail_electric rail_fast ship" speed="3.65" length="3.23" shape="271.24,339.38 270.55,338.81 270.60,337.91 271.37,336.70"/>
    </edge>
    <edge id=":164710153_8" function="internal">
        <lane id=":164710153_8_0" index="0" disallow="tram rail_urban rail rail_electric rail_fast ship" speed="6.59" length="9.19" shape="263.81,333.82 265.17,335.94 266.88,337.12 268.95,337.37 271.37,336.70"/>
    </edge>
    <edge id=":164710153_9" function="internal">
        <lane id=":164710153_9_0" index="0" disallow="tram rail_urban rail rail_electric rail_fast ship" speed="13.89" length="14.50" shape="263.81,333.82 269.85,347.00"/>
    </edge>
    <edge id=":164710153_10" function="internal">
        <lane id=":164710153_10_0" index="0" disallow="tram rail_urban rail rail_electric rail_fast ship" speed="7.98" length="14.24" shape="263.81,333.82 264.91,337.57 264.54,340.76 262.70,343.39 259.38,345.46"/>
    </edge>
    <edge id=":164710153_11" function="internal">
        <lane id=":164710153_11_0" index="0" disallow="tram rail_urban rail rail_electric rail_fast ship" speed="3.65" length="4.67" shape="263.81,333.82 263.58,335.25 263.02,335.94 262.13,335.91 260.90,335.15"/>
    </edge>
    <edge id=":164710153_12" function="internal">
        <lane id=":164710153_12_0" index="0" disallow="tram rail_urban rail rail_electric rail_fast ship" speed="6.48" length="9.03" shape="258.09,342.53 260.19,341.22 261.36,339.55 261.60,337.53 260.90,335.15"/>
    </edge>
    <edge id=":164710153_13" function="internal">
        <lane id=":164710153_13_0" index="0" disallow="tram rail_urban rail rail_electric rail_fast ship" speed="13.89" length="14.51" shape="258.09,342.53 271.37,336.70"/>
    </edge>
    <edge id=":164710153_14" function="internal">
        <lane id=":164710153_14_0" index="0" disallow="tram rail_urban rail rail_electric rail_fast ship" speed="8.08" length="4.09" shape="258.09,342.53 261.85,341.48 262.04,341.50"/>
    </edge>
    <edge id=":164710153_15" function="internal">
        <lane id=":164710153_15_0" index="0" disallow="tram rail_urban rail rail_electric rail_fast ship" speed="3.65" length="1.44" shape="258.09,342.53 259.51,342.78"/>
    </edge>
    <edge id=":164710153_18" function="internal">
        <lane id=":164710153_18_0" index="0" disallow="tram rail_urban rail rail_electric rail_fast ship" speed="8.08" length="10.20" shape="262.04,341.50 265.06,341.87 267.73,343.71 269.85,347.00"/>
    </edge>
    <edge id=":164710153_19" function="internal">
        <lane id=":164710153_19_0" index="0" disallow="tram rail_urban rail rail_electric rail_fast ship" speed="3.65" length="3.23" shape="259.51,342.78 260.20,343.35 260.16,344.24 259.38,345.46"/>
    </edge>
    <edge id=":164710155_0" function="internal">
        <lane id=":164710155_0_0" index="0" disallow="tram rail_urban rail rail_electric rail_fast ship" speed="6.50" length="9.03" shape="218.55,369.60 217.24,367.50 215.57,366.33 213.55,366.08 211.17,366.76"/>
    </edge>
    <edge id=":164710155_1" function="internal">
        <lane id=":164710155_1_0" index="0" disallow="tram rail_urban rail rail_electric rail_fast ship" speed="8.01" length="14.20" shape="218.55,369.60 217.50,365.85 217.89,362.67 219.74,360.04 223.04,357.99"/>
    </edge>
    <edge id=":164710155_2" function="internal">
        <lane id=":164710155_2_0" index="0" disallow="tram rail_urban rail rail_electric rail_fast ship" speed="3.65" length="4.67" shape="218.55,369.60 218.80,368.18 219.37,367.49 220.26,367.54 221.48,368.31"/>
    </edge>
    <edge id=":164710155_3" function="internal">
        <lane id=":164710155_3_0" index="0" disallow="tram rail_urban rail rail_electric rail_fast ship" speed="6.51" length="9.04" shape="224.33,360.92 222.23,362.22 221.06,363.89 220.81,365.92 221.48,368.31"/>
    </edge>
    <edge id=":164710155_4" function="internal">
        <lane id=":164710155_4_0" index="0" disallow="tram rail_urban rail rail_electric rail_fast ship" speed="13.89" length="14.41" shape="224.33,360.92 211.17,366.76"/>
    </edge>
    <edge id=":164710155_5" function="internal">
        <lane id=":164710155_5_0" index="0" disallow="tram rail_urban rail rail_electric rail_fast ship" speed="3.65" length="1.44" shape="224.33,360.92 222.91,360.67"/>
    </edge>
    <edge id=":164710155_9" function="internal">
        <lane id=":164710155_9_0" index="0" disallow="tram rail_urban rail rail_electric rail_fast ship" speed="3.65" length="3.23" shape="222.91,360.67 222.22,360.10 222.27,359.20 223.04,357.99"/>
    </edge>
    <edge id=":164710155_6" function="internal">
        <lane id=":164710155_6_0" index="0" disallow="tram rail_urban rail rail_electric rail_fast ship" speed="13.89" length="14.42" shape="209.86,363.84 223.04,357.99"/>
    </edge>
    <edge id=":164710155_7" function="internal">
        <lane id=":164710155_7_0" index="0" disallow="tram rail_urban rail rail_electric rail_fast ship" speed="7.99" length="4.09" shape="209.86,363.84 213.61,362.77 213.80,362.79"/>
    </edge>
    <edge id=":164710155_8" function="internal">
        <lane id=":164710155_8_0" index="0" disallow="tram rail_urban rail rail_electric rail_fast ship" speed="3.65" length="1.44" shape="209.86,363.84 211.28,364.08"/>
    </edge>
    <edge id=":164710155_10" function="internal">
        <lane id=":164710155_10_0" index="0" disallow="tram rail_urban rail rail_electric rail_fast ship" speed="7.99" length="10.12" shape="213.80,362.79 216.79,363.16 219.42,365.01 221.48,368.31"/>
    </edge>
    <edge id=":164710155_11" function="internal">
        <lane id=":164710155_11_0" index="0" disallow="tram rail_urban rail rail_electric rail_fast ship" speed="3.65" length="3.23" shape="211.28,364.08 211.97,364.65 211.93,365.54 211.17,366.76"/>
    </edge>
    <edge id=":164710168_0" function="internal">
        <lane id=":164710168_0_0" index="0" disallow="tram rail_urban rail rail_electric rail_fast ship" speed="13.89" length="0.38" shape="231.85,399.88 231.83,399.77 231.81,399.69 231.79,399.62 231.74,399.51"/>
    </edge>
    <edge id=":164710168_1" function="internal">
        <lane id=":164710168_1_0" index="0" disallow="tram rail_urban rail rail_electric rail_fast ship" speed="13.89" length="1.15" shape="234.67,398.22 234.80,398.53 234.88,398.75 234.94,398.98 235.00,399.32"/>
    </edge>
    <edge id=":165319554_0" function="internal">
        <lane id=":165319554_0_0" index="0" disallow="tram rail_urban rail rail_electric rail_fast ship" speed="6.59" length="9.13" shape="232.08,271.88 230.73,269.76 229.03,268.55 226.99,268.27 224.61,268.90"/>
    </edge>
    <edge id=":165319554_1" function="internal">
        <lane id=":165319554_1_0" index="0" disallow="tram rail_urban rail rail_electric rail_fast ship" speed="13.89" length="16.17" shape="232.08,271.88 230.67,268.22 229.56,264.22 228.77,260.14 228.33,256.23"/>
    </edge>
    <edge id=":165319554_2" function="internal">
        <lane id=":165319554_2_0" index="0" disallow="tram rail_urban rail rail_electric rail_fast ship" speed="8.24" length="15.29" shape="232.08,271.88 231.05,268.10 231.65,264.81 233.87,262.03 237.71,259.74"/>
    </edge>
    <edge id=":165319554_3" function="internal">
        <lane id=":165319554_3_0" index="0" disallow="tram rail_urban rail rail_electric rail_fast ship" speed="3.65" length="4.67" shape="232.08,271.88 232.31,270.46 232.87,269.77 233.77,269.80 234.99,270.56"/>
    </edge>
    <edge id=":165319554_4" function="internal">
        <lane id=":165319554_4_0" index="0" disallow="tram rail_urban rail rail_electric rail_fast ship" speed="6.80" length="10.08" shape="238.99,262.67 236.37,264.20 234.83,266.03 234.37,268.15 234.99,270.56"/>
    </edge>
    <edge id=":165319554_5" function="internal">
        <lane id=":165319554_5_0" index="0" disallow="tram rail_urban rail rail_electric rail_fast ship" speed="15.65" length="15.67" shape="238.99,262.67 224.61,268.90"/>
    </edge>
    <edge id=":165319554_6" function="internal">
        <lane id=":165319554_6_0" index="0" disallow="tram rail_urban rail rail_electric rail_fast ship" speed="7.53" length="4.54" shape="238.99,262.67 234.61,263.89"/>
    </edge>
    <edge id=":165319554_7" function="internal">
        <lane id=":165319554_7_0" index="0" disallow="tram rail_urban rail rail_electric rail_fast ship" speed="3.65" length="1.44" shape="238.99,262.67 237.57,262.42"/>
    </edge>
    <edge id=":165319554_16" function="internal">
        <lane id=":165319554_16_0" index="0" disallow="tram rail_urban rail rail_electric rail_fast ship" speed="7.53" length="11.15" shape="234.61,263.89 231.38,263.23 229.28,260.67 228.33,256.23"/>
    </edge>
    <edge id=":165319554_17" function="internal">
        <lane id=":165319554_17_0" index="0" disallow="tram rail_urban rail rail_electric rail_fast ship" speed="3.65" length="3.23" shape="237.57,262.42 236.88,261.85 236.93,260.95 237.71,259.74"/>
    </edge>
    <edge id=":165319554_8" function="internal">
        <lane id=":165319554_8_0" index="0" disallow="tram rail_urban rail rail_electric rail_fast ship" speed="5.90" length="9.11" shape="231.52,256.00 232.07,258.58 233.29,260.06 235.17,260.45 237.71,259.74"/>
    </edge>
    <edge id=":165319554_9" function="internal">
        <lane id=":165319554_9_0" index="0" disallow="tram rail_urban rail rail_electric rail_fast ship" speed="13.89" length="15.04" shape="231.52,256.00 231.92,259.74 232.61,263.44 233.63,267.07 234.99,270.56"/>
    </edge>
    <edge id=":165319554_10" function="internal">
        <lane id=":165319554_10_0" index="0" disallow="tram rail_urban rail rail_electric rail_fast ship" speed="9.64" length="15.71" shape="231.52,256.00 231.35,260.43 230.14,264.05 227.89,266.87 224.61,268.90"/>
    </edge>
    <edge id=":165319554_11" function="internal">
        <lane id=":165319554_11_0" index="0" disallow="tram rail_urban rail rail_electric rail_fast ship" speed="3.65" length="4.67" shape="231.52,256.00 230.80,257.26 230.04,257.71 229.21,257.37 228.33,256.23"/>
    </edge>
    <edge id=":165319554_12" function="internal">
        <lane id=":165319554_12_0" index="0" disallow="tram rail_urban rail rail_electric rail_fast ship" speed="8.39" length="11.72" shape="223.35,265.96 225.73,264.47 227.35,262.35 228.21,259.60 228.33,256.23"/>
    </edge>
    <edge id=":165319554_13" function="internal">
        <lane id=":165319554_13_0" index="0" disallow="tram rail_urban rail rail_electric rail_fast ship" speed="15.65" length="15.64" shape="223.35,265.96 237.71,259.74"/>
    </edge>
    <edge id=":165319554_14" function="internal">
        <lane id=":165319554_14_0" index="0" disallow="tram rail_urban rail rail_electric rail_fast ship" speed="8.07" length="4.00" shape="223.35,265.96 227.07,264.96 227.22,264.98"/>
    </edge>
    <edge id=":165319554_15" function="internal">
        <lane id=":165319554_15_0" index="0" disallow="tram rail_urban rail rail_electric rail_fast ship" speed="3.65" length="1.44" shape="223.35,265.96 224.77,266.22"/>
    </edge>
    <edge id=":165319554_18" function="internal">
        <lane id=":165319554_18_0" index="0" disallow="tram rail_urban rail rail_electric rail_fast ship" speed="8.07" length="10.20" shape="227.22,264.98 230.26,265.40 232.90,267.26 234.99,270.56"/>
    </edge>
    <edge id=":165319554_19" function="internal">
        <lane id=":165319554_19_0" index="0" disallow="tram rail_urban rail rail_electric rail_fast ship" speed="3.65" length="3.23" shape="224.77,266.22 225.45,266.80 225.40,267.69 224.61,268.90"/>
    </edge>
    <edge id=":165319558_0" function="internal">
        <lane id=":165319558_0_0" index="0" disallow="tram rail_urban rail rail_electric rail_fast ship" speed="13.89" length="12.86" shape="295.39,413.23 294.99,409.83 294.31,406.89 293.22,404.08 291.58,401.10"/>
    </edge>
    <edge id=":165319558_1" function="internal">
        <lane id=":165319558_1_0" index="0" disallow="tram rail_urban rail rail_electric rail_fast ship" speed="8.87" length="14.66" shape="295.39,413.23 295.89,410.73 297.83,408.46 301.21,406.39 306.03,404.54"/>
    </edge>
    <edge id=":165319558_2" function="internal">
        <lane id=":165319558_2_0" index="0" disallow="tram rail_urban rail rail_electric rail_fast ship" speed="3.65" length="4.67" shape="295.39,413.23 296.08,411.96 296.85,411.50 297.68,411.83 298.58,412.96"/>
    </edge>
    <edge id=":165319558_3" function="internal">
        <lane id=":165319558_3_0" index="0" disallow="tram rail_urban rail rail_electric rail_fast ship" speed="6.40" length="9.07" shape="304.52,407.78 301.77,408.17 299.85,409.16 298.79,410.76 298.58,412.96"/>
    </edge>
    <edge id=":165319558_4" function="internal">
        <lane id=":165319558_4_0" index="0" disallow="tram rail_urban rail rail_electric rail_fast ship" speed="10.59" length="15.29" shape="304.52,407.78 300.47,407.45 296.96,406.23 293.99,404.11 291.58,401.10"/>
    </edge>
    <edge id=":165319558_5" function="internal">
        <lane id=":165319558_5_0" index="0" disallow="tram rail_urban rail rail_electric rail_fast ship" speed="3.93" length="1.14" shape="304.52,407.78 303.93,406.81"/>
    </edge>
    <edge id=":165319558_9" function="internal">
        <lane id=":165319558_9_0" index="0" disallow="tram rail_urban rail rail_electric rail_fast ship" speed="3.93" length="4.09" shape="303.93,406.81 303.68,406.40 303.66,405.40 304.44,404.78 306.03,404.54"/>
    </edge>
    <edge id=":165319558_6" function="internal">
        <lane id=":165319558_6_0" index="0" disallow="tram rail_urban rail rail_electric rail_fast ship" speed="8.97" length="14.67" shape="293.85,398.69 296.50,402.10 299.41,404.21 302.59,405.02 306.03,404.54"/>
    </edge>
    <edge id=":165319558_7" function="internal">
        <lane id=":165319558_7_0" index="0" disallow="tram rail_urban rail rail_electric rail_fast ship" speed="13.89" length="4.13" shape="293.85,398.69 295.64,402.02 295.78,402.35"/>
    </edge>
    <edge id=":165319558_8" function="internal">
        <lane id=":165319558_8_0" index="0" disallow="tram rail_urban rail rail_electric rail_fast ship" speed="3.69" length="1.62" shape="293.85,398.69 294.18,400.15 294.15,400.27"/>
    </edge>
    <edge id=":165319558_10" function="internal">
        <lane id=":165319558_10_0" index="0" disallow="tram rail_urban rail rail_electric rail_fast ship" speed="13.89" length="11.02" shape="295.78,402.35 297.05,405.55 298.03,409.23 298.58,412.96"/>
    </edge>
    <edge id=":165319558_11" function="internal">
        <lane id=":165319558_11_0" index="0" disallow="tram rail_urban rail rail_electric rail_fast ship" speed="3.69" length="3.21" shape="294.15,400.27 293.92,401.03 293.05,401.35 291.58,401.10"/>
    </edge>
    <edge id=":165368802_0" function="internal">
        <lane id=":165368802_0_0" index="0" disallow="tram rail_urban rail rail_electric rail_fast ship" speed="3.65" length="4.67" shape="1036.97,529.44 1038.36,529.83 1038.99,530.46 1038.87,531.35 1037.98,532.48"/>
    </edge>
    <edge id=":165368836_0" function="internal">
        <lane id=":165368836_0_0" index="0" disallow="tram rail_urban rail rail_electric rail_fast ship" speed="7.41" length="9.67" shape="885.26,455.04 882.76,454.79 880.58,455.34 878.73,456.69 877.21,458.83"/>
    </edge>
    <edge id=":165368836_1" function="internal">
        <lane id=":165368836_1_0" index="0" disallow="tram rail_urban rail rail_electric rail_fast ship" speed="13.89" length="14.44" shape="885.26,455.04 881.74,454.02 878.40,452.80 875.09,451.48 871.68,450.15"/>
    </edge>
    <edge id=":165368836_2" function="internal">
        <lane id=":165368836_2_0" index="0" disallow="tram rail_urban rail rail_electric rail_fast ship" speed="3.66" length="1.45" shape="885.26,455.04 884.38,453.88"/>
    </edge>
    <edge id=":165368836_9" function="internal">
        <lane id=":165368836_9_0" index="0" disallow="tram rail_urban rail rail_electric rail_fast ship" speed="3.66" length="3.25" shape="884.38,453.88 884.27,452.99 884.91,452.36 886.31,452.00"/>
    </edge>
    <edge id=":165368836_3" function="internal">
        <lane id=":165368836_3_0" index="0" disallow="tram rail_urban rail rail_electric rail_fast ship" speed="13.89" length="14.38" shape="872.79,447.15 876.20,448.47 879.49,449.79 882.81,450.99 886.31,452.00"/>
    </edge>
    <edge id=":165368836_4" function="internal">
        <lane id=":165368836_4_0" index="0" disallow="tram rail_urban rail rail_electric rail_fast ship" speed="7.78" length="4.32" shape="872.79,447.15 876.41,449.12 876.53,449.28"/>
    </edge>
    <edge id=":165368836_5" function="internal">
        <lane id=":165368836_5_0" index="0" disallow="tram rail_urban rail rail_electric rail_fast ship" speed="3.65" length="1.44" shape="872.79,447.15 873.64,448.31"/>
    </edge>
    <edge id=":165368836_10" function="internal">
        <lane id=":165368836_10_0" index="0" disallow="tram rail_urban rail rail_electric rail_fast ship" speed="7.78" length="10.41" shape="876.53,449.28 878.35,451.72 878.62,454.96 877.21,458.83"/>
    </edge>
    <edge id=":165368836_11" function="internal">
        <lane id=":165368836_11_0" index="0" disallow="tram rail_urban rail rail_electric rail_fast ship" speed="3.65" length="3.23" shape="873.64,448.31 873.73,449.20 873.08,449.81 871.68,450.15"/>
    </edge>
    <edge id=":165368836_6" function="internal">
        <lane id=":165368836_6_0" index="0" disallow="tram rail_urban rail rail_electric rail_fast ship" speed="6.23" length="9.05" shape="874.39,457.32 875.25,454.94 875.09,452.96 873.90,451.36 871.68,450.15"/>
    </edge>
    <edge id=":165368836_7" function="internal">
        <lane id=":165368836_7_0" index="0" disallow="tram rail_urban rail rail_electric rail_fast ship" speed="8.86" length="14.20" shape="874.39,457.32 876.59,454.26 879.32,452.36 882.56,451.60 886.31,452.00"/>
    </edge>
    <edge id=":165368836_8" function="internal">
        <lane id=":165368836_8_0" index="0" disallow="tram rail_urban rail rail_electric rail_fast ship" speed="3.65" length="4.67" shape="874.39,457.32 875.66,456.64 876.55,456.67 877.07,457.40 877.21,458.83"/>
    </edge>
    <edge id=":165373717_0" function="internal">
        <lane id=":165373717_0_0" index="0" allow="pedestrian delivery bicycle" speed="9.72" length="18.39" shape="1601.68,394.01 1597.59,392.75 1592.87,391.35 1588.12,390.11 1583.92,389.34"/>
    </edge>
    <edge id=":165373717_1" function="internal">
        <lane id=":165373717_1_0" index="0" allow="pedestrian delivery bicycle" speed="7.14" length="17.54" shape="1601.68,394.01 1597.10,391.91 1595.71,389.36 1597.51,386.34 1602.50,382.87"/>
    </edge>