<?xml version="1.0" encoding="UTF-8"?>

<!-- generated on 2022-10-01 17:11:24 by Eclipse SUMO od2trips Version 1.14.1
<configuration xmlns:xsi="http://www.w3.org/2001/XMLSchema-instance" xsi:noNamespaceSchemaLocation="http://sumo.dlr.de/xsd/od2tripsConfiguration.xsd">

    <input>
        <taz-files value="districts.taz.xml"/>
        <od-matrix-files value="od_test.od"/>
    </input>

    <output>
        <output-file value="trips"/>
    </output>

</configuration>
-->

<routes xmlns:xsi="http://www.w3.org/2001/XMLSchema-instance" xsi:noNamespaceSchemaLocation="http://sumo.dlr.de/xsd/routes_file.xsd">
    <trip id="63" depart="25200.79" from="-16259248#0" to="-924683558" fromTaz="0" toTaz="1" departLane="free" departSpeed="max"/>
    <trip id="283" depart="25202.83" from="16263945" to="-721720674#1" fromTaz="0" toTaz="1" departLane="free" departSpeed="max"/>
    <trip id="519" depart="25204.77" from="-16262565" to="922463717" fromTaz="0" toTaz="1" departLane="free" departSpeed="max"/>
    <trip id="245" depart="25211.12" from="721720674#0" to="721720674#1" fromTaz="0" toTaz="1" departLane="free" departSpeed="max"/>
    <trip id="88" depart="25216.72" from="627887422#4" to="260036057#1" fromTaz="0" toTaz="1" departLane="free" departSpeed="max"/>
    <trip id="9" depart="25218.39" from="627887422#2" to="-16255055" fromTaz="0" toTaz="1" departLane="free" departSpeed="max"/>
    <trip id="749" depart="25218.97" from="16261056" to="-922463717" fromTaz="0" toTaz="1" departLane="free" departSpeed="max"/>
    <trip id="412" depart="25219.61" from="-962107125#0" to="-16249540#0" fromTaz="0" toTaz="1" departLane="free" departSpeed="max"/>
    <trip id="391" depart="25223.05" from="-886568238#2" to="-16255055" fromTaz="0" toTaz="1" departLane="free" departSpeed="max"/>
    <trip id="1143" depart="25223.89" from="-16261465#2" to="-16255055" fromTaz="2" toTaz="1" departLane="free" departSpeed="max"/>
    <trip id="198" depart="25236.86" from="627887422#4" to="-721720674#1" fromTaz="0" toTaz="1" departLane="free" departSpeed="max"/>
    <trip id="526" depart="25237.70" from="721720674#0" to="721720674#1" fromTaz="0" toTaz="1" departLane="free" departSpeed="max"/>
    <trip id="142" depart="25239.03" from="16249540#1" to="-16256466" fromTaz="0" toTaz="1" departLane="free" departSpeed="max"/>
    <trip id="571" depart="25246.90" from="16263945" to="-721720674#1" fromTaz="0" toTaz="1" departLane="free" departSpeed="max"/>
    <trip id="772" depart="25247.95" from="-627887422#3" to="260036057#1" fromTaz="0" toTaz="1" departLane="free" departSpeed="max"/>
    <trip id="543" depart="25254.47" from="924683558" to="-922463717" fromTaz="0" toTaz="1" departLane="free" departSpeed="max"/>
    <trip id="5" depart="25255.65" from="-16254201" to="-924683558" fromTaz="0" toTaz="1" departLane="free" departSpeed="max"/>
    <trip id="1050" depart="25259.07" from="16264556#1" to="16255055" fromTaz="2" toTaz="1" departLane="free" departSpeed="max"/>
    <trip id="597" depart="25270.72" from="16255603#0" to="-260036057#1" fromTaz="0" toTaz="1" departLane="free" departSpeed="max"/>
    <trip id="1075" depart="25272.86" from="16261307#3" to="-260036057#1" fromTaz="2" toTaz="1" departLane="free" departSpeed="max"/>
    <trip id="587" depart="25273.98" from="-627887422#1" to="721720674#1" fromTaz="0" toTaz="1" departLane="free" departSpeed="max"/>
    <trip id="711" depart="25276.05" from="-16256466" to="260036057#1" fromTaz="0" toTaz="1" departLane="free" departSpeed="max"/>
    <trip id="551" depart="25276.76" from="-16262819#0" to="922463717" fromTaz="0" toTaz="1" departLane="free" departSpeed="max"/>
    <trip id="418" depart="25277.89" from="627887423#5" to="-721720674#1" fromTaz="0" toTaz="1" departLane="free" departSpeed="max"/>
    <trip id="111" depart="25281.63" from="-627887423#6" to="922463717" fromTaz="0" toTaz="1" departLane="free" departSpeed="max"/>
    <trip id="829" depart="25288.88" from="-721720674#0" to="-924683558" fromTaz="0" toTaz="1" departLane="free" departSpeed="max"/>
    <trip id="907" depart="25292.51" from="-16255603#0" to="-922463717" fromTaz="0" toTaz="1" departLane="free" departSpeed="max"/>
    <trip id="915" depart="25295.90" from="688182823" to="-16256466" fromTaz="0" toTaz="1" departLane="free" departSpeed="max"/>
    <trip id="223" depart="25301.43" from="627887422#4" to="-922463717" fromTaz="0" toTaz="1" departLane="free" departSpeed="max"/>
    <trip id="508" depart="25305.18" from="627887422#5" to="16255055" fromTaz="0" toTaz="1" departLane="free" departSpeed="max"/>
    <trip id="399" depart="25306.94" from="-70331786" to="-16249540#0" fromTaz="0" toTaz="1" departLane="free" departSpeed="max"/>
    <trip id="367" depart="25307.93" from="-16263932#0" to="-924683558" fromTaz="0" toTaz="1" departLane="free" departSpeed="max"/>
    <trip id="695" depart="25308.25" from="627887423#2" to="922463717" fromTaz="0" toTaz="1" departLane="free" departSpeed="max"/>
    <trip id="873" depart="25308.86" from="70331786" to="-924683558" fromTaz="0" toTaz="1" departLane="free" departSpeed="max"/>
    <trip id="884" depart="25310.09" from="16259248#0" to="-922463717" fromTaz="0" toTaz="1" departLane="free" departSpeed="max"/>
    <trip id="370" depart="25314.89" from="16263945" to="-16256466" fromTaz="0" toTaz="1" departLane="free" departSpeed="max"/>
    <trip id="129" depart="25316.59" from="-627887422#5" to="721720674#1" fromTaz="0" toTaz="1" departLane="free" departSpeed="max"/>
    <trip id="960" depart="25320.35" from="-886568238#0" to="16255055" fromTaz="0" toTaz="1" departLane="free" departSpeed="max"/>
    <trip id="944" depart="25327.28" from="627887423#0" to="-922463717" fromTaz="0" toTaz="1" departLane="free" departSpeed="max"/>
    <trip id="920" depart="25338.74" from="-627887423#3" to="-260036057#1" fromTaz="0" toTaz="1" departLane="free" departSpeed="max"/>
    <trip id="648" depart="25345.86" from="851394171" to="-721720674#1" fromTaz="0" toTaz="1" departLane="free" departSpeed="max"/>
    <trip id="318" depart="25350.40" from="-924683558" to="-16256466" fromTaz="0" toTaz="1" departLane="free" departSpeed="max"/>
    <trip id="546" depart="25353.28" from="-16255055" to="922463717" fromTaz="0" toTaz="1" departLane="free" departSpeed="max"/>
    <trip id="565" depart="25353.62" from="851394171" to="924683558" fromTaz="0" toTaz="1" departLane="free" departSpeed="max"/>
    <trip id="650" depart="25359.54" from="-16255055" to="-16255055" fromTaz="0" toTaz="1" departLane="free" departSpeed="max"/>
    <trip id="19" depart="25363.02" from="-16263932#0" to="-16249540#0" fromTaz="0" toTaz="1" departLane="free" departSpeed="max"/>
    <trip id="567" depart="25367.76" from="16255603#0" to="-922463717" fromTaz="0" toTaz="1" departLane="free" departSpeed="max"/>
    <trip id="92" depart="25369.75" from="-260036057#1" to="922463717" fromTaz="0" toTaz="1" departLane="free" departSpeed="max"/>
    <trip id="1052" depart="25379.28" from="679906154#0" to="721720674#1" fromTaz="2" toTaz="1" departLane="free" departSpeed="max"/>
    <trip id="137" depart="25379.52" from="-260036057#0" to="-16255055" fromTaz="0" toTaz="1" departLane="free" departSpeed="max"/>
    <trip id="457" depart="25382.42" from="16263932#1" to="-721720674#1" fromTaz="0" toTaz="1" departLane="free" departSpeed="max"/>
    <trip id="1022" depart="25385.27" from="500439733#1" to="16255055" fromTaz="2" toTaz="1" departLane="free" departSpeed="max"/>
    <trip id="73" depart="25386.01" from="-627887422#1" to="-922463717" fromTaz="0" toTaz="1" departLane="free" departSpeed="max"/>
    <trip id="378" depart="25387.53" from="627887423#6" to="-16256466" fromTaz="0" toTaz="1" departLane="free" departSpeed="max"/>
    <trip id="503" depart="25400.43" from="70331786" to="260036057#1" fromTaz="0" toTaz="1" departLane="free" departSpeed="max"/>
    <trip id="256" depart="25402.95" from="-70331786" to="16255055" fromTaz="0" toTaz="1" departLane="free" departSpeed="max"/>
    <trip id="62" depart="25407.72" from="16259248#0" to="721720674#1" fromTaz="0" toTaz="1" departLane="free" departSpeed="max"/>
    <trip id="333" depart="25408.04" from="627887426#0" to="16255055" fromTaz="0" toTaz="1" departLane="free" departSpeed="max"/>
    <trip id="165" depart="25411.05" from="-16263932#0" to="924683558" fromTaz="0" toTaz="1" departLane="free" departSpeed="max"/>
    <trip id="68" depart="25412.57" from="-16263932#4" to="924683558" fromTaz="0" toTaz="1" departLane="free" departSpeed="max"/>
    <trip id="147" depart="25414.16" from="16260480" to="260036057#1" fromTaz="0" toTaz="1" departLane="free" departSpeed="max"/>
    <trip id="918" depart="25418.23" from="-721720674#0" to="260036057#1" fromTaz="0" toTaz="1" departLane="free" departSpeed="max"/>
    <trip id="401" depart="25420.27" from="16259248#0" to="721720674#1" fromTaz="0" toTaz="1" departLane="free" departSpeed="max"/>
    <trip id="1061" depart="25420.53" from="679910002" to="-16255055" fromTaz="2" toTaz="1" departLane="free" departSpeed="max"/>
    <trip id="409" depart="25420.65" from="922463717" to="260036057#1" fromTaz="0" toTaz="1" departLane="free" departSpeed="max"/>
    <trip id="264" depart="25422.36" from="16255603#0" to="16255055" fromTaz="0" toTaz="1" departLane="free" departSpeed="max"/>
    <trip id="362" depart="25424.07" from="-627887422#0" to="16255055" fromTaz="0" toTaz="1" departLane="free" departSpeed="max"/>
    <trip id="965" depart="25427.50" from="627887422#0" to="-16256466" fromTaz="0" toTaz="1" departLane="free" departSpeed="max"/>
    <trip id="1099" depart="25432.39" from="-688434731" to="-16256466" fromTaz="2" toTaz="1" departLane="free" departSpeed="max"/>
    <trip id="945" depart="25436.20" from="886568238#2" to="-922463717" fromTaz="0" toTaz="1" departLane="free" departSpeed="max"/>
    <trip id="27" depart="25438.38" from="-721720674#1" to="-721720674#1" fromTaz="0" toTaz="1" departLane="free" departSpeed="max"/>
    <trip id="534" depart="25440.80" from="250473408" to="-260036057#1" fromTaz="0" toTaz="1" departLane="free" departSpeed="max"/>
    <trip id="511" depart="25443.94" from="627887422#1" to="-16249540#0" fromTaz="0" toTaz="1" departLane="free" departSpeed="max"/>
    <trip id="274" depart="25444.16" from="-627887422#3" to="260036057#1" fromTaz="0" toTaz="1" departLane="free" departSpeed="max"/>
    <trip id="821" depart="25444.71" from="16262819#0" to="16255055" fromTaz="0" toTaz="1" departLane="free" departSpeed="max"/>
    <trip id="917" depart="25448.19" from="-16263932#0" to="-16249540#0" fromTaz="0" toTaz="1" departLane="free" departSpeed="max"/>
    <trip id="700" depart="25459.99" from="627887423#4" to="260036057#1" fromTaz="0" toTaz="1" departLane="free" departSpeed="max"/>
    <trip id="422" depart="25460.97" from="721720674#0" to="260036057#1" fromTaz="0" toTaz="1" departLane="free" departSpeed="max"/>
    <trip id="808" depart="25463.80" from="16263932#4" to="-16249540#0" fromTaz="0" toTaz="1" departLane="free" departSpeed="max"/>
    <trip id="502" depart="25472.92" from="-924683558" to="-16255055" fromTaz="0" toTaz="1" departLane="free" departSpeed="max"/>
    <trip id="891" depart="25475.22" from="16255603#0" to="260036057#1" fromTaz="0" toTaz="1" departLane="free" departSpeed="max"/>
    <trip id="403" depart="25476.27" from="-16249540#0" to="-721720674#1" fromTaz="0" toTaz="1" departLane="free" departSpeed="max"/>
    <trip id="619" depart="25478.45" from="-16262819#0" to="-16256466" fromTaz="0" toTaz="1" departLane="free" departSpeed="max"/>
    <trip id="781" depart="25478.73" from="-16263932#0" to="-260036057#1" fromTaz="0" toTaz="1" departLane="free" departSpeed="max"/>
    <trip id="356" depart="25480.53" from="721720674#0" to="-16256466" fromTaz="0" toTaz="1" departLane="free" departSpeed="max"/>
    <trip id="762" depart="25480.71" from="16263932#2" to="260036057#1" fromTaz="0" toTaz="1" departLane="free" departSpeed="max"/>
    <trip id="610" depart="25484.18" from="260036057#1" to="260036057#1" fromTaz="0" toTaz="1" departLane="free" departSpeed="max"/>
    <trip id="197" depart="25492.21" from="924683558" to="922463717" fromTaz="0" toTaz="1" departLane="free" departSpeed="max"/>
    <trip id="1036" depart="25498.61" from="679909983#1" to="-16249540#0" fromTaz="2" toTaz="1" departLane="free" departSpeed="max"/>
    <trip id="962" depart="25502.63" from="-886568238#0" to="16255055" fromTaz="0" toTaz="1" departLane="free" departSpeed="max"/>
    <trip id="655" depart="25502.92" from="16263932#1" to="-16249540#0" fromTaz="0" toTaz="1" departLane="free" departSpeed="max"/>
    <trip id="547" depart="25502.97" from="16259248#0" to="-16256466" fromTaz="0" toTaz="1" departLane="free" departSpeed="max"/>
    <trip id="268" depart="25505.15" from="16263932#1" to="260036057#1" fromTaz="0" toTaz="1" departLane="free" departSpeed="max"/>
    <trip id="662" depart="25506.30" from="-627887422#5" to="-16249540#0" fromTaz="0" toTaz="1" departLane="free" departSpeed="max"/>
    <trip id="260" depart="25512.98" from="-16263932#3" to="-16255055" fromTaz="0" toTaz="1" departLane="free" departSpeed="max"/>
    <trip id="413" depart="25514.38" from="-16261056" to="260036057#1" fromTaz="0" toTaz="1" departLane="free" departSpeed="max"/>
    <trip id="1046" depart="25518.06" from="-678740109#2" to="721720674#1" fromTaz="2" toTaz="1" departLane="free" departSpeed="max"/>
    <trip id="878" depart="25518.37" from="-16255055" to="721720674#1" fromTaz="0" toTaz="1" departLane="free" departSpeed="max"/>
    <trip id="326" depart="25520.66" from="-16263945" to="-16256466" fromTaz="0" toTaz="1" departLane="free" departSpeed="max"/>
    <trip id="98" depart="25522.82" from="-627887423#3" to="-16249540#0" fromTaz="0" toTaz="1" departLane="free" departSpeed="max"/>
    <trip id="70" depart="25525.69" from="-260036057#0" to="-924683558" fromTaz="0" toTaz="1" departLane="free" departSpeed="max"/>
    <trip id="180" depart="25526.27" from="16249540#1" to="922463717" fromTaz="0" toTaz="1" departLane="free" departSpeed="max"/>
    <trip id="343" depart="25527.86" from="-627887423#3" to="-16249540#0" fromTaz="0" toTaz="1" departLane="free" departSpeed="max"/>
    <trip id="400" depart="25531.23" from="-721720674#0" to="-16249540#0" fromTaz="0" toTaz="1" departLane="free" departSpeed="max"/>
    <trip id="593" depart="25535.03" from="16262565" to="-260036057#1" fromTaz="0" toTaz="1" departLane="free" departSpeed="max"/>
    <trip id="931" depart="25538.45" from="-886568238#1" to="260036057#1" fromTaz="0" toTaz="1" departLane="free" departSpeed="max"/>
    <trip id="369" depart="25540.73" from="-16262819#0" to="-260036057#1" fromTaz="0" toTaz="1" departLane="free" departSpeed="max"/>
    <trip id="582" depart="25540.80" from="-70331786" to="721720674#1" fromTaz="0" toTaz="1" departLane="free" departSpeed="max"/>
    <trip id="561" depart="25542.66" from="16260480" to="-924683558" fromTaz="0" toTaz="1" departLane="free" departSpeed="max"/>
    <trip id="183" depart="25549.67" from="-16261056" to="924683558" fromTaz="0" toTaz="1" departLane="free" departSpeed="max"/>
    <trip id="49" depart="25553.09" from="721720674#1" to="-721720674#1" fromTaz="0" toTaz="1" departLane="free" departSpeed="max"/>
    <trip id="207" depart="25557.13" from="-70331786" to="-16249540#0" fromTaz="0" toTaz="1" departLane="free" departSpeed="max"/>
    <trip id="50" depart="25563.29" from="627887426#0" to="721720674#1" fromTaz="0" toTaz="1" departLane="free" departSpeed="max"/>
    <trip id="87" depart="25563.53" from="-16249540#0" to="-721720674#1" fromTaz="0" toTaz="1" departLane="free" departSpeed="max"/>
    <trip id="393" depart="25568.31" from="16263945" to="-16256466" fromTaz="0" toTaz="1" departLane="free" departSpeed="max"/>
    <trip id="83" depart="25568.78" from="-627887422#4" to="-16255055" fromTaz="0" toTaz="1" departLane="free" departSpeed="max"/>
    <trip id="712" depart="25574.70" from="886568238#2" to="922463717" fromTaz="0" toTaz="1" departLane="free" departSpeed="max"/>
    <trip id="7" depart="25581.92" from="721720673" to="-721720674#1" fromTaz="0" toTaz="1" departLane="free" departSpeed="max"/>
    <trip id="350" depart="25582.07" from="-16262819#0" to="-260036057#1" fromTaz="0" toTaz="1" departLane="free" departSpeed="max"/>
    <trip id="65" depart="25586.17" from="-16262565" to="-922463717" fromTaz="0" toTaz="1" departLane="free" departSpeed="max"/>
    <trip id="668" depart="25589.08" from="627887423#0" to="-924683558" fromTaz="0" toTaz="1" departLane="free" departSpeed="max"/>
    <trip id="1058" depart="25591.58" from="-16253485#0" to="721720674#1" fromTaz="2" toTaz="1" departLane="free" departSpeed="max"/>
    <trip id="404" depart="25593.73" from="688182823" to="922463717" fromTaz="0" toTaz="1" departLane="free" departSpeed="max"/>
    <trip id="649" depart="25595.17" from="627887422#5" to="-16255055" fromTaz="0" toTaz="1" departLane="free" departSpeed="max"/>
    <trip id="692" depart="25595.23" from="851394171" to="924683558" fromTaz="0" toTaz="1" departLane="free" departSpeed="max"/>
    <trip id="447" depart="25596.42" from="-851394171" to="16255055" fromTaz="0" toTaz="1" departLane="free" departSpeed="max"/>
    <trip id="95" depart="25597.95" from="-627887423#3" to="924683558" fromTaz="0" toTaz="1" departLane="free" departSpeed="max"/>
    <trip id="943" depart="25600.21" from="627887422#5" to="-16256466" fromTaz="0" toTaz="1" departLane="free" departSpeed="max"/>
    <trip id="1120" depart="25601.34" from="16262900#1" to="-16255055" fromTaz="2" toTaz="1" departLane="free" departSpeed="max"/>
    <trip id="444" depart="25609.79" from="627887422#1" to="-16255055" fromTaz="0" toTaz="1" departLane="free" departSpeed="max"/>
    <trip id="42" depart="25610.68" from="-16260480" to="922463717" fromTaz="0" toTaz="1" departLane="free" departSpeed="max"/>
    <trip id="1126" depart="25614.29" from="688188523" to="-721720674#1" fromTaz="2" toTaz="1" departLane="free" departSpeed="max"/>
    <trip id="488" depart="25616.57" from="-16254201" to="-16256466" fromTaz="0" toTaz="1" departLane="free" departSpeed="max"/>
    <trip id="299" depart="25622.38" from="16263945" to="-16256466" fromTaz="0" toTaz="1" departLane="free" departSpeed="max"/>
    <trip id="33" depart="25623.68" from="250473408" to="-16255055" fromTaz="0" toTaz="1" departLane="free" departSpeed="max"/>
    <trip id="437" depart="25625.10" from="16253485#0" to="-260036057#1" fromTaz="0" toTaz="1" departLane="free" departSpeed="max"/>
    <trip id="952" depart="25627.81" from="-627887423#3" to="260036057#1" fromTaz="0" toTaz="1" departLane="free" departSpeed="max"/>
    <trip id="208" depart="25629.67" from="-721720674#0" to="-924683558" fromTaz="0" toTaz="1" departLane="free" departSpeed="max"/>
    <trip id="983" depart="25631.82" from="627887423#0" to="-260036057#1" fromTaz="0" toTaz="1" departLane="free" departSpeed="max"/>
    <trip id="30" depart="25633.87" from="-924683558" to="-922463717" fromTaz="0" toTaz="1" departLane="free" departSpeed="max"/>
    <trip id="26" depart="25636.43" from="16249540#1" to="721720674#1" fromTaz="0" toTaz="1" departLane="free" departSpeed="max"/>
    <trip id="657" depart="25641.70" from="688182823" to="-16255055" fromTaz="0" toTaz="1" departLane="free" departSpeed="max"/>
    <trip id="651" depart="25642.81" from="16255603#0" to="924683558" fromTaz="0" toTaz="1" departLane="free" departSpeed="max"/>
    <trip id="1094" depart="25645.90" from="679861616#2" to="-260036057#1" fromTaz="2" toTaz="1" departLane="free" departSpeed="max"/>
    <trip id="259" depart="25646.89" from="16261056" to="721720674#1" fromTaz="0" toTaz="1" departLane="free" departSpeed="max"/>
    <trip id="426" depart="25652.31" from="-16260480" to="-924683558" fromTaz="0" toTaz="1" departLane="free" departSpeed="max"/>
    <trip id="445" depart="25656.61" from="-16262565" to="922463717" fromTaz="0" toTaz="1" departLane="free" departSpeed="max"/>
    <trip id="1127" depart="25658.37" from="-627006507#1" to="16255055" fromTaz="2" toTaz="1" departLane="free" departSpeed="max"/>
    <trip id="205" depart="25664.16" from="-627887423#5" to="721720674#1" fromTaz="0" toTaz="1" departLane="free" departSpeed="max"/>
    <trip id="1100" depart="25668.04" from="16263876#0" to="922463717" fromTaz="2" toTaz="1" departLane="free" departSpeed="max"/>
    <trip id="751" depart="25670.56" from="-627887422#5" to="922463717" fromTaz="0" toTaz="1" departLane="free" departSpeed="max"/>
    <trip id="704" depart="25671.75" from="627887423#0" to="924683558" fromTaz="0" toTaz="1" departLane="free" departSpeed="max"/>
    <trip id="430" depart="25676.56" from="-627887422#5" to="-16256466" fromTaz="0" toTaz="1" departLane="free" departSpeed="max"/>
    <trip id="1" depart="25676.94" from="-16254201" to="260036057#1" fromTaz="0" toTaz="1" departLane="free" departSpeed="max"/>
    <trip id="592" depart="25682.04" from="260036057#0" to="-924683558" fromTaz="0" toTaz="1" departLane="free" departSpeed="max"/>
    <trip id="271" depart="25690.44" from="-627887422#4" to="16255055" fromTaz="0" toTaz="1" departLane="free" departSpeed="max"/>
    <trip id="951" depart="25701.57" from="16263945" to="-721720674#1" fromTaz="0" toTaz="1" departLane="free" departSpeed="max"/>
    <trip id="178" depart="25705.51" from="16255603#0" to="-721720674#1" fromTaz="0" toTaz="1" departLane="free" departSpeed="max"/>
    <trip id="1138" depart="25709.50" from="-627006505#1" to="924683558" fromTaz="2" toTaz="1" departLane="free" departSpeed="max"/>
    <trip id="717" depart="25710.67" from="250473408" to="-922463717" fromTaz="0" toTaz="1" departLane="free" departSpeed="max"/>
    <trip id="1014" depart="25716.47" from="-688188529" to="-721720674#1" fromTaz="2" toTaz="1" departLane="free" departSpeed="max"/>
    <trip id="1003" depart="25721.32" from="-851394171" to="922463717" fromTaz="2" toTaz="1" departLane="free" departSpeed="max"/>
    <trip id="728" depart="25723.24" from="-627887422#5" to="-16255055" fromTaz="0" toTaz="1" departLane="free" departSpeed="max"/>
    <trip id="970" depart="25723.56" from="16263932#0" to="-16249540#0" fromTaz="0" toTaz="1" departLane="free" departSpeed="max"/>
    <trip id="570" depart="25727.29" from="-16263932#1" to="-721720674#1" fromTaz="0" toTaz="1" departLane="free" departSpeed="max"/>
    <trip id="708" depart="25730.66" from="-886568238#2" to="-16249540#0" fromTaz="0" toTaz="1" departLane="free" departSpeed="max"/>
    <trip id="838" depart="25731.40" from="627887422#0" to="924683558" fromTaz="0" toTaz="1" departLane="free" departSpeed="max"/>
    <trip id="874" depart="25731.53" from="-16262819#0" to="924683558" fromTaz="0" toTaz="1" departLane="free" departSpeed="max"/>
    <trip id="746" depart="25733.42" from="260036057#1" to="-721720674#1" fromTaz="0" toTaz="1" departLane="free" departSpeed="max"/>
    <trip id="584" depart="25741.66" from="16253485#0" to="-16255055" fromTaz="0" toTaz="1" departLane="free" departSpeed="max"/>
    <trip id="1146" depart="25749.45" from="688434737" to="-924683558" fromTaz="2" toTaz="1" departLane="free" departSpeed="max"/>
    <trip id="1004" depart="25751.82" from="627006505#0" to="721720674#1" fromTaz="2" toTaz="1" departLane="free" departSpeed="max"/>
    <trip id="538" depart="25758.67" from="-16263945" to="-16255055" fromTaz="0" toTaz="1" departLane="free" departSpeed="max"/>
    <trip id="725" depart="25759.93" from="627887422#2" to="16255055" fromTaz="0" toTaz="1" departLane="free" departSpeed="max"/>
    <trip id="241" depart="25760.10" from="-16255603#0" to="721720674#1" fromTaz="0" toTaz="1" departLane="free" departSpeed="max"/>
    <trip id="731" depart="25760.11" from="260036057#1" to="-721720674#1" fromTaz="0" toTaz="1" departLane="free" departSpeed="max"/>
    <trip id="152" depart="25768.32" from="627887423#4" to="924683558" fromTaz="0" toTaz="1" departLane="free" departSpeed="max"/>
    <trip id="703" depart="25768.51" from="250473408" to="-16255055" fromTaz="0" toTaz="1" departLane="free" departSpeed="max"/>
    <trip id="643" depart="25769.90" from="721720674#1" to="-721720674#1" fromTaz="0" toTaz="1" departLane="free" departSpeed="max"/>
    <trip id="336" depart="25773.43" from="16260480" to="-16255055" fromTaz="0" toTaz="1" departLane="free" departSpeed="max"/>
    <trip id="176" depart="25774.15" from="-922463717" to="-721720674#1" fromTaz="0" toTaz="1" departLane="free" departSpeed="max"/>
    <trip id="102" depart="25781.56" from="16254201" to="260036057#1" fromTaz="0" toTaz="1" departLane="free" departSpeed="max"/>
    <trip id="61" depart="25787.91" from="886568238#0" to="-16256466" fromTaz="0" toTaz="1" departLane="free" departSpeed="max"/>
    <trip id="758" depart="25789.76" from="16263932#0" to="-260036057#1" fromTaz="0" toTaz="1" departLane="free" departSpeed="max"/>
    <trip id="1059" depart="25790.69" from="884564308" to="-16249540#0" fromTaz="2" toTaz="1" departLane="free" departSpeed="max"/>
    <trip id="635" depart="25791.35" from="-16254201" to="16255055" fromTaz="0" toTaz="1" departLane="free" departSpeed="max"/>
    <trip id="143" depart="25792.10" from="627887423#5" to="-924683558" fromTaz="0" toTaz="1" departLane="free" departSpeed="max"/>
    <trip id="1078" depart="25806.98" from="-16261465#3" to="16255055" fromTaz="2" toTaz="1" departLane="free" departSpeed="max"/>
    <trip id="620" depart="25812.07" from="-627887423#6" to="260036057#1" fromTaz="0" toTaz="1" departLane="free" departSpeed="max"/>
    <trip id="1111" depart="25813.20" from="16255963#0" to="-16255055" fromTaz="2" toTaz="1" departLane="free" departSpeed="max"/>
    <trip id="77" depart="25817.57" from="-16253485#0" to="-16249540#0" fromTaz="0" toTaz="1" departLane="free" departSpeed="max"/>
    <trip id="492" depart="25824.75" from="627887423#2" to="922463717" fromTaz="0" toTaz="1" departLane="free" departSpeed="max"/>
    <trip id="736" depart="25829.06" from="70331786" to="-924683558" fromTaz="0" toTaz="1" departLane="free" departSpeed="max"/>
    <trip id="394" depart="25835.18" from="16263932#0" to="-16255055" fromTaz="0" toTaz="1" departLane="free" departSpeed="max"/>
    <trip id="529" depart="25836.26" from="-260036057#1" to="-922463717" fromTaz="0" toTaz="1" departLane="free" departSpeed="max"/>
    <trip id="773" depart="25837.60" from="-260036057#0" to="260036057#1" fromTaz="0" toTaz="1" departLane="free" departSpeed="max"/>
    <trip id="739" depart="25837.90" from="-627887422#0" to="-16256466" fromTaz="0" toTaz="1" departLane="free" departSpeed="max"/>
    <trip id="1135" depart="25839.33" from="679909975" to="16255055" fromTaz="2" toTaz="1" departLane="free" departSpeed="max"/>
    <trip id="764" depart="25839.44" from="-627887423#4" to="922463717" fromTaz="0" toTaz="1" departLane="free" departSpeed="max"/>
    <trip id="733" depart="25839.62" from="-688182823" to="-924683558" fromTaz="0" toTaz="1" departLane="free" departSpeed="max"/>
    <trip id="266" depart="25840.55" from="16263932#2" to="-922463717" fromTaz="0" toTaz="1" departLane="free" departSpeed="max"/>
    <trip id="475" depart="25843.20" from="16263932#1" to="16255055" fromTaz="0" toTaz="1" departLane="free" departSpeed="max"/>
    <trip id="569" depart="25847.45" from="-627887422#0" to="922463717" fromTaz="0" toTaz="1" departLane="free" departSpeed="max"/>
    <trip id="715" depart="25848.90" from="-16255603#0" to="-16249540#0" fromTaz="0" toTaz="1" departLane="free" departSpeed="max"/>
    <trip id="553" depart="25851.39" from="-922463717" to="-16249540#0" fromTaz="0" toTaz="1" departLane="free" departSpeed="max"/>
    <trip id="1103" depart="25859.18" from="16261465#4" to="-721720674#1" fromTaz="2" toTaz="1" departLane="free" departSpeed="max"/>
    <trip id="672" depart="25860.40" from="-16256466" to="-924683558" fromTaz="0" toTaz="1" departLane="free" departSpeed="max"/>
    <trip id="467" depart="25862.61" from="627887423#2" to="-924683558" fromTaz="0" toTaz="1" departLane="free" departSpeed="max"/>
    <trip id="296" depart="25863.46" from="16254201" to="-260036057#1" fromTaz="0" toTaz="1" departLane="free" departSpeed="max"/>
    <trip id="688" depart="25863.69" from="16260480" to="-924683558" fromTaz="0" toTaz="1" departLane="free" departSpeed="max"/>
    <trip id="293" depart="25865.77" from="627887423#0" to="-16255055" fromTaz="0" toTaz="1" departLane="free" departSpeed="max"/>
    <trip id="1002" depart="25866.66" from="-679861613" to="922463717" fromTaz="2" toTaz="1" departLane="free" departSpeed="max"/>
    <trip id="277" depart="25866.97" from="922463717" to="-260036057#1" fromTaz="0" toTaz="1" departLane="free" departSpeed="max"/>
    <trip id="640" depart="25868.80" from="627887423#6" to="-16255055" fromTaz="0" toTaz="1" departLane="free" departSpeed="max"/>
    <trip id="84" depart="25869.55" from="-627887423#3" to="16255055" fromTaz="0" toTaz="1" departLane="free" departSpeed="max"/>
    <trip id="1001" depart="25872.99" from="-627006507#2" to="-721720674#1" fromTaz="2" toTaz="1" departLane="free" departSpeed="max"/>
    <trip id="690" depart="25873.42" from="70331786" to="-721720674#1" fromTaz="0" toTaz="1" departLane="free" departSpeed="max"/>
    <trip id="1084" depart="25873.69" from="620504592" to="-924683558" fromTaz="2" toTaz="1" departLane="free" departSpeed="max"/>
    <trip id="15" depart="25874.42" from="260036057#0" to="16255055" fromTaz="0" toTaz="1" departLane="free" departSpeed="max"/>
    <trip id="971" depart="25875.07" from="-16260480" to="-260036057#1" fromTaz="0" toTaz="1" departLane="free" departSpeed="max"/>
    <trip id="332" depart="25875.61" from="688182823" to="922463717" fromTaz="0" toTaz="1" departLane="free" departSpeed="max"/>
    <trip id="472" depart="25887.79" from="-16255603#0" to="-16256466" fromTaz="0" toTaz="1" departLane="free" departSpeed="max"/>
    <trip id="729" depart="25888.12" from="627887423#5" to="-16249540#0" fromTaz="0" toTaz="1" departLane="free" departSpeed="max"/>