<?xml version="1.0" encoding="UTF-8"?>

<!-- generated on 2022-09-23 20:20:50 by Eclipse SUMO od2trips Version 1.14.1
<configuration xmlns:xsi="http://www.w3.org/2001/XMLSchema-instance" xsi:noNamespaceSchemaLocation="http://sumo.dlr.de/xsd/od2tripsConfiguration.xsd">

    <input>
        <taz-files value="study_area.net.xml,districts.taz.xml"/>
        <od-matrix-files value="od_test"/>
    </input>

    <output>
        <output-file value="trips"/>
    </output>

</configuration>
-->

<routes xmlns:xsi="http://www.w3.org/2001/XMLSchema-instance" xsi:noNamespaceSchemaLocation="http://sumo.dlr.de/xsd/routes_file.xsd">
</routes>
